C10H12O
APtclcactv12182409533D 0   0.00000     0.00000
 
 23 23  0  0  0  0  0  0  0  0999 V2000
    4.2586    0.9036   -0.0007 C   0  0  0  0  0  0  0  0  0  0  0  0
    3.1702   -0.1717   -0.0002 C   0  0  0  0  0  0  0  0  0  0  0  0
    1.7936    0.4960   -0.0006 C   0  0  0  0  0  0  0  0  0  0  0  0
    0.7215   -0.5631   -0.0001 C   0  0  0  0  0  0  0  0  0  0  0  0
    1.0283   -1.7362    0.0005 O   0  0  0  0  0  0  0  0  0  0  0  0
   -0.6977   -0.1736   -0.0003 C   0  0  0  0  0  0  0  0  0  0  0  0
   -1.6955   -1.1536    0.0001 C   0  0  0  0  0  0  0  0  0  0  0  0
   -3.0229   -0.7806   -0.0002 C   0  0  0  0  0  0  0  0  0  0  0  0
   -3.3690    0.5595   -0.0013 C   0  0  0  0  0  0  0  0  0  0  0  0
   -2.3874    1.5352   -0.0018 C   0  0  0  0  0  0  0  0  0  0  0  0
   -1.0555    1.1783    0.0048 C   0  0  0  0  0  0  0  0  0  0  0  0
    4.1560    1.5240   -0.8910 H   0  0  0  0  0  0  0  0  0  0  0  0
    4.1559    1.5249    0.8890 H   0  0  0  0  0  0  0  0  0  0  0  0
    5.2393    0.4279   -0.0005 H   0  0  0  0  0  0  0  0  0  0  0  0
    3.2729   -0.7930   -0.8899 H   0  0  0  0  0  0  0  0  0  0  0  0
    3.2728   -0.7922    0.8901 H   0  0  0  0  0  0  0  0  0  0  0  0
    1.6909    1.1173    0.8891 H   0  0  0  0  0  0  0  0  0  0  0  0
    1.6909    1.1165   -0.8909 H   0  0  0  0  0  0  0  0  0  0  0  0
   -1.4270   -2.1997    0.0003 H   0  0  0  0  0  0  0  0  0  0  0  0
   -3.7947   -1.5361    0.0002 H   0  0  0  0  0  0  0  0  0  0  0  0
   -4.4105    0.8453   -0.0022 H   0  0  0  0  0  0  0  0  0  0  0  0
   -2.6653    2.5788   -0.0027 H   0  0  0  0  0  0  0  0  0  0  0  0
   -0.2906    1.9408    0.0048 H   0  0  0  0  0  0  0  0  0  0  0  0
  1  2  1  0  0  0  0
  2  3  1  0  0  0  0
  3  4  1  0  0  0  0
  4  5  2  0  0  0  0
  4  6  1  0  0  0  0
  6  7  1  0  0  0  0
  7  8  2  0  0  0  0
  8  9  1  0  0  0  0
  9 10  2  0  0  0  0
 10 11  1  0  0  0  0
  6 11  2  0  0  0  0
  1 12  1  0  0  0  0
  1 13  1  0  0  0  0
  1 14  1  0  0  0  0
  2 15  1  0  0  0  0
  2 16  1  0  0  0  0
  3 17  1  0  0  0  0
  3 18  1  0  0  0  0
  7 19  1  0  0  0  0
  8 20  1  0  0  0  0
  9 21  1  0  0  0  0
 10 22  1  0  0  0  0
 11 23  1  0  0  0  0
M  END
$$$$
