C5H12O2
APtclcactv12182410033D 0   0.00000     0.00000
 
 19 18  0  0  0  0  0  0  0  0999 V2000
    1.6942    1.2055   -0.0822 C   0  0  0  0  0  0  0  0  0  0  0  0
    0.8311    0.3370   -0.8189 O   0  0  0  0  0  0  0  0  0  0  0  0
    0.0000   -0.4881    0.0000 C   0  0  0  0  0  0  0  0  0  0  0  0
   -0.8768   -1.3714   -0.8898 C   0  0  0  0  0  0  0  0  0  0  0  0
    0.8768   -1.3714    0.8898 C   0  0  0  0  0  0  0  0  0  0  0  0
   -0.8311    0.3370    0.8189 O   0  0  0  0  0  0  0  0  0  0  0  0
   -1.6942    1.2055    0.0822 C   0  0  0  0  0  0  0  0  0  0  0  0
    2.2916    1.7977   -0.7754 H   0  0  0  0  0  0  0  0  0  0  0  0
    1.0954    1.8699    0.5407 H   0  0  0  0  0  0  0  0  0  0  0  0
    2.3540    0.6113    0.5500 H   0  0  0  0  0  0  0  0  0  0  0  0
   -0.2429   -2.0007   -1.5145 H   0  0  0  0  0  0  0  0  0  0  0  0
   -1.5107   -2.0007   -0.2652 H   0  0  0  0  0  0  0  0  0  0  0  0
   -1.5014   -0.7421   -1.5238 H   0  0  0  0  0  0  0  0  0  0  0  0
    1.5014   -0.7421    1.5238 H   0  0  0  0  0  0  0  0  0  0  0  0
    0.2429   -2.0007    1.5145 H   0  0  0  0  0  0  0  0  0  0  0  0
    1.5107   -2.0007    0.2652 H   0  0  0  0  0  0  0  0  0  0  0  0
   -2.2916    1.7977    0.7754 H   0  0  0  0  0  0  0  0  0  0  0  0
   -1.0954    1.8699   -0.5407 H   0  0  0  0  0  0  0  0  0  0  0  0
   -2.3540    0.6113   -0.5500 H   0  0  0  0  0  0  0  0  0  0  0  0
  1  2  1  0  0  0  0
  2  3  1  0  0  0  0
  3  4  1  0  0  0  0
  3  5  1  0  0  0  0
  3  6  1  0  0  0  0
  6  7  1  0  0  0  0
  1  8  1  0  0  0  0
  1  9  1  0  0  0  0
  1 10  1  0  0  0  0
  4 11  1  0  0  0  0
  4 12  1  0  0  0  0
  4 13  1  0  0  0  0
  5 14  1  0  0  0  0
  5 15  1  0  0  0  0
  5 16  1  0  0  0  0
  7 17  1  0  0  0  0
  7 18  1  0  0  0  0
  7 19  1  0  0  0  0
M  END
$$$$
