C8H6O2
APtclcactv12182410023D 0   0.00000     0.00000
 
 16 16  0  0  0  0  0  0  0  0999 V2000
   -3.4682   -0.8134   -0.0016 O   0  0  0  0  0  0  0  0  0  0  0  0
   -2.8621    0.2364   -0.0006 C   0  0  0  0  0  0  0  0  0  0  0  0
   -1.3877    0.2364   -0.0005 C   0  0  0  0  0  0  0  0  0  0  0  0
   -0.6887    1.4472    0.0007 C   0  0  0  0  0  0  0  0  0  0  0  0
    0.6887    1.4472    0.0007 C   0  0  0  0  0  0  0  0  0  0  0  0
    1.3877    0.2364   -0.0001 C   0  0  0  0  0  0  0  0  0  0  0  0
    2.8621    0.2364   -0.0006 C   0  0  0  0  0  0  0  0  0  0  0  0
    3.4682   -0.8134   -0.0013 O   0  0  0  0  0  0  0  0  0  0  0  0
    0.6887   -0.9744    0.0001 C   0  0  0  0  0  0  0  0  0  0  0  0
   -0.6887   -0.9744    0.0041 C   0  0  0  0  0  0  0  0  0  0  0  0
   -3.4021    1.1717   -0.0041 H   0  0  0  0  0  0  0  0  0  0  0  0
   -1.2287    2.3825    0.0013 H   0  0  0  0  0  0  0  0  0  0  0  0
    1.2287    2.3825    0.0009 H   0  0  0  0  0  0  0  0  0  0  0  0
    3.4021    1.1717   -0.0004 H   0  0  0  0  0  0  0  0  0  0  0  0
    1.2287   -1.9097   -0.0002 H   0  0  0  0  0  0  0  0  0  0  0  0
   -1.2287   -1.9097    0.0042 H   0  0  0  0  0  0  0  0  0  0  0  0
  1  2  2  0  0  0  0
  2  3  1  0  0  0  0
  3  4  1  0  0  0  0
  4  5  2  0  0  0  0
  5  6  1  0  0  0  0
  6  7  1  0  0  0  0
  7  8  2  0  0  0  0
  6  9  2  0  0  0  0
  9 10  1  0  0  0  0
  3 10  2  0  0  0  0
  2 11  1  0  0  0  0
  4 12  1  0  0  0  0
  5 13  1  0  0  0  0
  7 14  1  0  0  0  0
  9 15  1  0  0  0  0
 10 16  1  0  0  0  0
M  END
$$$$
