C3H5BrO2
APtclcactv12182410013D 0   0.00000     0.00000
 
 11 10  0  0  0  0  0  0  0  0999 V2000
    3.4563   -0.8704   -0.0000 O   0  0  0  0  0  0  0  0  0  0  0  0
    2.4197   -0.0177    0.0000 C   0  0  0  0  0  0  0  0  0  0  0  0
    2.6179    1.1742    0.0000 O   0  0  0  0  0  0  0  0  0  0  0  0
    1.0086   -0.5469   -0.0000 C   0  0  0  0  0  0  0  0  0  0  0  0
    0.0246    0.6247   -0.0000 C   0  0  0  0  0  0  0  0  0  0  0  0
   -1.8162   -0.0657    0.0000 Br  0  0  0  0  0  0  0  0  0  0  0  0
    4.3427   -0.4839    0.0000 H   0  0  0  0  0  0  0  0  0  0  0  0
    0.8489   -1.1556   -0.8900 H   0  0  0  0  0  0  0  0  0  0  0  0
    0.8489   -1.1556    0.8900 H   0  0  0  0  0  0  0  0  0  0  0  0
    0.1843    1.2334    0.8900 H   0  0  0  0  0  0  0  0  0  0  0  0
    0.1843    1.2334   -0.8900 H   0  0  0  0  0  0  0  0  0  0  0  0
  1  2  1  0  0  0  0
  2  3  2  0  0  0  0
  2  4  1  0  0  0  0
  4  5  1  0  0  0  0
  5  6  1  0  0  0  0
  1  7  1  0  0  0  0
  4  8  1  0  0  0  0
  4  9  1  0  0  0  0
  5 10  1  0  0  0  0
  5 11  1  0  0  0  0
M  END
$$$$
