C3H7ClO
APtclcactv12182410043D 0   0.00000     0.00000
 
 12 11  0  0  0  0  0  0  0  0999 V2000
    2.9656   -0.4400   -0.0000 O   0  0  0  0  0  0  0  0  0  0  0  0
    1.8770    0.4858    0.0000 C   0  0  0  0  0  0  0  0  0  0  0  0
    0.5540   -0.2827   -0.0000 C   0  0  0  0  0  0  0  0  0  0  0  0
   -0.6116    0.7085   -0.0000 C   0  0  0  0  0  0  0  0  0  0  0  0
   -2.1706   -0.1971    0.0000 Cl  0  0  0  0  0  0  0  0  0  0  0  0
    3.8375   -0.0218    0.0000 H   0  0  0  0  0  0  0  0  0  0  0  0
    1.9331    1.1126    0.8900 H   0  0  0  0  0  0  0  0  0  0  0  0
    1.9331    1.1126   -0.8900 H   0  0  0  0  0  0  0  0  0  0  0  0
    0.4979   -0.9095   -0.8900 H   0  0  0  0  0  0  0  0  0  0  0  0
    0.4979   -0.9095    0.8900 H   0  0  0  0  0  0  0  0  0  0  0  0
   -0.5555    1.3353    0.8900 H   0  0  0  0  0  0  0  0  0  0  0  0
   -0.5555    1.3353   -0.8900 H   0  0  0  0  0  0  0  0  0  0  0  0
  1  2  1  0  0  0  0
  2  3  1  0  0  0  0
  3  4  1  0  0  0  0
  4  5  1  0  0  0  0
  1  6  1  0  0  0  0
  2  7  1  0  0  0  0
  2  8  1  0  0  0  0
  3  9  1  0  0  0  0
  3 10  1  0  0  0  0
  4 11  1  0  0  0  0
  4 12  1  0  0  0  0
M  END
$$$$
