C6H4Cl2
APtclcactv12182410033D 0   0.00000     0.00000
 
 12 12  0  0  0  0  0  0  0  0999 V2000
   -1.4275    1.5607   -0.0010 Cl  0  0  0  0  0  0  0  0  0  0  0  0
    0.0757    0.6922   -0.0007 C   0  0  0  0  0  0  0  0  0  0  0  0
    1.2742    1.3831    0.0016 C   0  0  0  0  0  0  0  0  0  0  0  0
    2.4707    0.6913    0.0013 C   0  0  0  0  0  0  0  0  0  0  0  0
    2.4707   -0.6913   -0.0012 C   0  0  0  0  0  0  0  0  0  0  0  0
    1.2743   -1.3831   -0.0030 C   0  0  0  0  0  0  0  0  0  0  0  0
    0.0757   -0.6922    0.0030 C   0  0  0  0  0  0  0  0  0  0  0  0
   -1.4275   -1.5607    0.0007 Cl  0  0  0  0  0  0  0  0  0  0  0  0
    1.2750    2.4631    0.0032 H   0  0  0  0  0  0  0  0  0  0  0  0
    3.4062    1.2310    0.0028 H   0  0  0  0  0  0  0  0  0  0  0  0
    3.4062   -1.2310   -0.0021 H   0  0  0  0  0  0  0  0  0  0  0  0
    1.2750   -2.4631   -0.0050 H   0  0  0  0  0  0  0  0  0  0  0  0
  1  2  1  0  0  0  0
  2  3  1  0  0  0  0
  3  4  2  0  0  0  0
  4  5  1  0  0  0  0
  5  6  2  0  0  0  0
  6  7  1  0  0  0  0
  2  7  2  0  0  0  0
  7  8  1  0  0  0  0
  3  9  1  0  0  0  0
  4 10  1  0  0  0  0
  5 11  1  0  0  0  0
  6 12  1  0  0  0  0
M  END
$$$$
