C16H35N
APtclcactv12182410033D 0   0.00000     0.00000
 
 52 51  0  0  0  0  0  0  0  0999 V2000
    9.9428   -0.4775    0.0100 C   0  0  0  0  0  0  0  0  0  0  0  0
    8.7054    0.4223   -0.0027 C   0  0  0  0  0  0  0  0  0  0  0  0
    7.4445   -0.4442    0.0095 C   0  0  0  0  0  0  0  0  0  0  0  0
    6.2072    0.4556   -0.0032 C   0  0  0  0  0  0  0  0  0  0  0  0
    4.9462   -0.4109    0.0090 C   0  0  0  0  0  0  0  0  0  0  0  0
    3.7089    0.4890   -0.0036 C   0  0  0  0  0  0  0  0  0  0  0  0
    2.4480   -0.3775    0.0086 C   0  0  0  0  0  0  0  0  0  0  0  0
    1.2106    0.5223   -0.0041 C   0  0  0  0  0  0  0  0  0  0  0  0
   -0.0000   -0.3097    0.0076 N   0  0  0  0  0  0  0  0  0  0  0  0
   -1.2106    0.5223   -0.0041 C   0  0  0  0  0  0  0  0  0  0  0  0
   -2.4480   -0.3775    0.0086 C   0  0  0  0  0  0  0  0  0  0  0  0
   -3.7089    0.4890   -0.0036 C   0  0  0  0  0  0  0  0  0  0  0  0
   -4.9462   -0.4109    0.0090 C   0  0  0  0  0  0  0  0  0  0  0  0
   -6.2072    0.4556   -0.0032 C   0  0  0  0  0  0  0  0  0  0  0  0
   -7.4445   -0.4442    0.0095 C   0  0  0  0  0  0  0  0  0  0  0  0
   -8.7054    0.4223   -0.0027 C   0  0  0  0  0  0  0  0  0  0  0  0
   -9.9428   -0.4775    0.0100 C   0  0  0  0  0  0  0  0  0  0  0  0
   10.8411    0.1398    0.0013 H   0  0  0  0  0  0  0  0  0  0  0  0
    9.9344   -1.0942    0.9087 H   0  0  0  0  0  0  0  0  0  0  0  0
    9.9344   -1.1193   -0.8710 H   0  0  0  0  0  0  0  0  0  0  0  0
    8.7138    1.0640    0.8784 H   0  0  0  0  0  0  0  0  0  0  0  0
    8.7138    1.0390   -0.9014 H   0  0  0  0  0  0  0  0  0  0  0  0
    7.4361   -1.0859   -0.8715 H   0  0  0  0  0  0  0  0  0  0  0  0
    7.4361   -1.0609    0.9083 H   0  0  0  0  0  0  0  0  0  0  0  0
    6.2156    1.0974    0.8779 H   0  0  0  0  0  0  0  0  0  0  0  0
    6.2156    1.0723   -0.9019 H   0  0  0  0  0  0  0  0  0  0  0  0
    4.9378   -1.0526   -0.8720 H   0  0  0  0  0  0  0  0  0  0  0  0
    4.9378   -1.0275    0.9078 H   0  0  0  0  0  0  0  0  0  0  0  0
    3.7173    1.1307    0.8774 H   0  0  0  0  0  0  0  0  0  0  0  0
    3.7173    1.1056   -0.9024 H   0  0  0  0  0  0  0  0  0  0  0  0
    2.4396   -1.0193   -0.8725 H   0  0  0  0  0  0  0  0  0  0  0  0
    2.4396   -0.9942    0.9073 H   0  0  0  0  0  0  0  0  0  0  0  0
    1.2190    1.1640    0.8769 H   0  0  0  0  0  0  0  0  0  0  0  0
    1.2190    1.1390   -0.9028 H   0  0  0  0  0  0  0  0  0  0  0  0
    0.0000   -0.9590   -0.7647 H   0  0  0  0  0  0  0  0  0  0  0  0
   -1.2190    1.1640    0.8769 H   0  0  0  0  0  0  0  0  0  0  0  0
   -1.2190    1.1390   -0.9028 H   0  0  0  0  0  0  0  0  0  0  0  0
   -2.4396   -1.0193   -0.8725 H   0  0  0  0  0  0  0  0  0  0  0  0
   -2.4396   -0.9942    0.9073 H   0  0  0  0  0  0  0  0  0  0  0  0
   -3.7173    1.1307    0.8774 H   0  0  0  0  0  0  0  0  0  0  0  0
   -3.7173    1.1056   -0.9024 H   0  0  0  0  0  0  0  0  0  0  0  0
   -4.9378   -1.0526   -0.8720 H   0  0  0  0  0  0  0  0  0  0  0  0
   -4.9378   -1.0275    0.9078 H   0  0  0  0  0  0  0  0  0  0  0  0
   -6.2156    1.0974    0.8779 H   0  0  0  0  0  0  0  0  0  0  0  0
   -6.2156    1.0723   -0.9019 H   0  0  0  0  0  0  0  0  0  0  0  0
   -7.4361   -1.0859   -0.8715 H   0  0  0  0  0  0  0  0  0  0  0  0
   -7.4361   -1.0609    0.9083 H   0  0  0  0  0  0  0  0  0  0  0  0
   -8.7138    1.0640    0.8783 H   0  0  0  0  0  0  0  0  0  0  0  0
   -8.7138    1.0390   -0.9014 H   0  0  0  0  0  0  0  0  0  0  0  0
  -10.8411    0.1398    0.0013 H   0  0  0  0  0  0  0  0  0  0  0  0
   -9.9344   -1.1193   -0.8710 H   0  0  0  0  0  0  0  0  0  0  0  0
   -9.9344   -1.0942    0.9087 H   0  0  0  0  0  0  0  0  0  0  0  0
  1  2  1  0  0  0  0
  2  3  1  0  0  0  0
  3  4  1  0  0  0  0
  4  5  1  0  0  0  0
  5  6  1  0  0  0  0
  6  7  1  0  0  0  0
  7  8  1  0  0  0  0
  8  9  1  0  0  0  0
  9 10  1  0  0  0  0
 10 11  1  0  0  0  0
 11 12  1  0  0  0  0
 12 13  1  0  0  0  0
 13 14  1  0  0  0  0
 14 15  1  0  0  0  0
 15 16  1  0  0  0  0
 16 17  1  0  0  0  0
  1 18  1  0  0  0  0
  1 19  1  0  0  0  0
  1 20  1  0  0  0  0
  2 21  1  0  0  0  0
  2 22  1  0  0  0  0
  3 23  1  0  0  0  0
  3 24  1  0  0  0  0
  4 25  1  0  0  0  0
  4 26  1  0  0  0  0
  5 27  1  0  0  0  0
  5 28  1  0  0  0  0
  6 29  1  0  0  0  0
  6 30  1  0  0  0  0
  7 31  1  0  0  0  0
  7 32  1  0  0  0  0
  8 33  1  0  0  0  0
  8 34  1  0  0  0  0
  9 35  1  0  0  0  0
 10 36  1  0  0  0  0
 10 37  1  0  0  0  0
 11 38  1  0  0  0  0
 11 39  1  0  0  0  0
 12 40  1  0  0  0  0
 12 41  1  0  0  0  0
 13 42  1  0  0  0  0
 13 43  1  0  0  0  0
 14 44  1  0  0  0  0
 14 45  1  0  0  0  0
 15 46  1  0  0  0  0
 15 47  1  0  0  0  0
 16 48  1  0  0  0  0
 16 49  1  0  0  0  0
 17 50  1  0  0  0  0
 17 51  1  0  0  0  0
 17 52  1  0  0  0  0
M  END
$$$$
